output/1_QUEB_1/Cargas_BT_DU11_1_QUEB_1.dss
New "Load.BT_233150_M1" bus1="UC233150.1.2.3.4" phases=3 conn=delta model=2 kv=0.38 kw = 1.5768067437948652 pf=0.92 status=variable vmaxpu=1.5 vminpu=0.93 daily="RU8_DU" 
New "Load.BT_233150_M2" bus1="UC233150.1.2.3.4" phases=3 conn=delta model=3 kv=0.38 kw = 1.5768067437948652 pf=0.92 status=variable vmaxpu=1.5 vminpu=0.93 daily="RU8_DU"
 
New "Load.BT_233144_M1" bus1="UC233144.1.2.4" phases=2 conn=delta model=2 kv=0.38 kw = 0.276265367855901 pf=0.92 status=variable vmaxpu=1.5 vminpu=0.93 daily="RU5_DU" 
New "Load.BT_233144_M2" bus1="UC233144.1.2.4" phases=2 conn=delta model=3 kv=0.38 kw = 0.276265367855901 pf=0.92 status=variable vmaxpu=1.5 vminpu=0.93 daily="RU5_DU"
 
New "Load.BT_232530_M1" bus1="UC232530.1.2.4" phases=2 conn=delta model=2 kv=0.38 kw = 0.22811335666467863 pf=0.92 status=variable vmaxpu=1.5 vminpu=0.93 daily="RU3_DU" 
New "Load.BT_232530_M2" bus1="UC232530.1.2.4" phases=2 conn=delta model=3 kv=0.38 kw = 0.22811335666467863 pf=0.92 status=variable vmaxpu=1.5 vminpu=0.93 daily="RU3_DU"
 
New "Load.BT_231938_M1" bus1="UC231938.1.4" phases=1 conn=delta model=2 kv=0.22 kw = 0.257386413590826 pf=0.92 status=variable vmaxpu=1.5 vminpu=0.93 daily="RU6_DU" 
New "Load.BT_231938_M2" bus1="UC231938.1.4" phases=1 conn=delta model=3 kv=0.22 kw = 0.257386413590826 pf=0.92 status=variable vmaxpu=1.5 vminpu=0.93 daily="RU6_DU"
 
New "Load.BT_2831932_M1" bus1="UC2831932.1.4" phases=1 conn=delta model=2 kv=0.22 kw = 0.016293811190334188 pf=0.92 status=variable vmaxpu=1.5 vminpu=0.93 daily="RU3_DU" 
New "Load.BT_2831932_M2" bus1="UC2831932.1.4" phases=1 conn=delta model=3 kv=0.22 kw = 0.016293811190334188 pf=0.92 status=variable vmaxpu=1.5 vminpu=0.93 daily="RU3_DU"
 
New "Load.BT_231933_M1" bus1="UC231933.1.2.4" phases=2 conn=delta model=2 kv=0.44 kw = 1.2056373426706832 pf=0.92 status=variable vmaxpu=1.5 vminpu=0.93 daily="RU5_DU" 
New "Load.BT_231933_M2" bus1="UC231933.1.2.4" phases=2 conn=delta model=3 kv=0.44 kw = 1.2056373426706832 pf=0.92 status=variable vmaxpu=1.5 vminpu=0.93 daily="RU5_DU"
 
New "Load.BT_2831495_M1" bus1="UC2831495.1.4" phases=1 conn=delta model=2 kv=0.22 kw = 0.10138371407319052 pf=0.92 status=variable vmaxpu=1.5 vminpu=0.93 daily="RU3_DU" 
New "Load.BT_2831495_M2" bus1="UC2831495.1.4" phases=1 conn=delta model=3 kv=0.22 kw = 0.10138371407319052 pf=0.92 status=variable vmaxpu=1.5 vminpu=0.93 daily="RU3_DU"
 
New "Load.BT_2831490_M1" bus1="UC2831490.1.4" phases=1 conn=delta model=2 kv=0.22 kw = 0.26903821594098726 pf=0.92 status=variable vmaxpu=1.5 vminpu=0.93 daily="RU1_DU" 
New "Load.BT_2831490_M2" bus1="UC2831490.1.4" phases=1 conn=delta model=3 kv=0.22 kw = 0.26903821594098726 pf=0.92 status=variable vmaxpu=1.5 vminpu=0.93 daily="RU1_DU"
 
New "Load.BT_231251_M1" bus1="UC231251.3.4" phases=1 conn=delta model=2 kv=0.22 kw = 0.0 pf=0.92 status=variable vmaxpu=1.5 vminpu=0.93 daily="CO3_DU" 
New "Load.BT_231251_M2" bus1="UC231251.3.4" phases=1 conn=delta model=3 kv=0.22 kw = 0.0 pf=0.92 status=variable vmaxpu=1.5 vminpu=0.93 daily="CO3_DU"
 
New "Load.BT_2831192_M1" bus1="UC2831192.1.4" phases=1 conn=delta model=2 kv=0.22 kw = 0.042322588157603 pf=0.92 status=variable vmaxpu=1.5 vminpu=0.93 daily="RU7_DU" 
New "Load.BT_2831192_M2" bus1="UC2831192.1.4" phases=1 conn=delta model=3 kv=0.22 kw = 0.042322588157603 pf=0.92 status=variable vmaxpu=1.5 vminpu=0.93 daily="RU7_DU"
 
New "Load.BT_2831188_M1" bus1="UC2831188.1.4" phases=1 conn=delta model=2 kv=0.22 kw = 0.14966180502220483 pf=0.92 status=variable vmaxpu=1.5 vminpu=0.93 daily="PP3_DU" 
New "Load.BT_2831188_M2" bus1="UC2831188.1.4" phases=1 conn=delta model=3 kv=0.22 kw = 0.14966180502220483 pf=0.92 status=variable vmaxpu=1.5 vminpu=0.93 daily="PP3_DU"
 
New "Load.BT_230656_M1" bus1="UC230656.2.4" phases=1 conn=delta model=2 kv=0.22 kw = 0.4064189071267396 pf=0.92 status=variable vmaxpu=1.5 vminpu=0.93 daily="RU2_DU" 
New "Load.BT_230656_M2" bus1="UC230656.2.4" phases=1 conn=delta model=3 kv=0.22 kw = 0.4064189071267396 pf=0.92 status=variable vmaxpu=1.5 vminpu=0.93 daily="RU2_DU"
 
New "Load.BT_2830653_M1" bus1="UC2830653.2.4" phases=1 conn=delta model=2 kv=0.22 kw = 0.3605665176047484 pf=0.92 status=variable vmaxpu=1.5 vminpu=0.93 daily="RU2_DU" 
New "Load.BT_2830653_M2" bus1="UC2830653.2.4" phases=1 conn=delta model=3 kv=0.22 kw = 0.3605665176047484 pf=0.92 status=variable vmaxpu=1.5 vminpu=0.93 daily="RU2_DU"
 
New "Load.BT_230651_M1" bus1="UC230651.1.4" phases=1 conn=delta model=2 kv=0.22 kw = 0.2322766861296036 pf=0.92 status=variable vmaxpu=1.5 vminpu=0.93 daily="RU4_DU" 
New "Load.BT_230651_M2" bus1="UC230651.1.4" phases=1 conn=delta model=3 kv=0.22 kw = 0.2322766861296036 pf=0.92 status=variable vmaxpu=1.5 vminpu=0.93 daily="RU4_DU"
 
New "Load.BT_230555_M1" bus1="UC230555.1.4" phases=1 conn=delta model=2 kv=0.22 kw = 0.021300482134155786 pf=0.92 status=variable vmaxpu=1.5 vminpu=0.93 daily="RU4_DU" 
New "Load.BT_230555_M2" bus1="UC230555.1.4" phases=1 conn=delta model=3 kv=0.22 kw = 0.021300482134155786 pf=0.92 status=variable vmaxpu=1.5 vminpu=0.93 daily="RU4_DU"
 
New "Load.BT_228394_M1" bus1="UC228394.1.4" phases=1 conn=delta model=2 kv=0.22 kw = 0.45068175217045603 pf=0.92 status=variable vmaxpu=1.5 vminpu=0.93 daily="RU5_DU" 
New "Load.BT_228394_M2" bus1="UC228394.1.4" phases=1 conn=delta model=3 kv=0.22 kw = 0.45068175217045603 pf=0.92 status=variable vmaxpu=1.5 vminpu=0.93 daily="RU5_DU"
 
New "Load.BT_228388_M1" bus1="UC228388.1.4" phases=1 conn=delta model=2 kv=0.22 kw = 0.1670436000120442 pf=0.92 status=variable vmaxpu=1.5 vminpu=0.93 daily="RE1_DU" 
New "Load.BT_228388_M2" bus1="UC228388.1.4" phases=1 conn=delta model=3 kv=0.22 kw = 0.1670436000120442 pf=0.92 status=variable vmaxpu=1.5 vminpu=0.93 daily="RE1_DU"
 
New "Load.BT_227082_M1" bus1="UC227082.2.4" phases=1 conn=delta model=2 kv=0.22 kw = 0.0 pf=0.92 status=variable vmaxpu=1.5 vminpu=0.93 daily="RU7_DU" 
New "Load.BT_227082_M2" bus1="UC227082.2.4" phases=1 conn=delta model=3 kv=0.22 kw = 0.0 pf=0.92 status=variable vmaxpu=1.5 vminpu=0.93 daily="RU7_DU"
 
New "Load.BT_2827937_M1" bus1="UC2827937.1.4" phases=1 conn=delta model=2 kv=0.22 kw = 0.14190514852843358 pf=0.92 status=variable vmaxpu=1.5 vminpu=0.93 daily="RU7_DU" 
New "Load.BT_2827937_M2" bus1="UC2827937.1.4" phases=1 conn=delta model=3 kv=0.22 kw = 0.14190514852843358 pf=0.92 status=variable vmaxpu=1.5 vminpu=0.93 daily="RU7_DU"
 
New "Load.BT_228376_M1" bus1="UC228376.1.4" phases=1 conn=delta model=2 kv=0.22 kw = 0.21097620399544775 pf=0.92 status=variable vmaxpu=1.5 vminpu=0.93 daily="RU4_DU" 
New "Load.BT_228376_M2" bus1="UC228376.1.4" phases=1 conn=delta model=3 kv=0.22 kw = 0.21097620399544775 pf=0.92 status=variable vmaxpu=1.5 vminpu=0.93 daily="RU4_DU"
 
New "Load.BT_226217_M1" bus1="UC226217.1.4" phases=1 conn=delta model=2 kv=0.22 kw = 0.060869377977375315 pf=0.92 status=variable vmaxpu=1.5 vminpu=0.93 daily="RU8_DU" 
New "Load.BT_226217_M2" bus1="UC226217.1.4" phases=1 conn=delta model=3 kv=0.22 kw = 0.060869377977375315 pf=0.92 status=variable vmaxpu=1.5 vminpu=0.93 daily="RU8_DU"
 
New "Load.BT_226224_M1" bus1="UC226224.2.4" phases=1 conn=delta model=2 kv=0.22 kw = 0.11955293119424366 pf=0.92 status=variable vmaxpu=1.5 vminpu=0.93 daily="RE6_DU" 
New "Load.BT_226224_M2" bus1="UC226224.2.4" phases=1 conn=delta model=3 kv=0.22 kw = 0.11955293119424366 pf=0.92 status=variable vmaxpu=1.5 vminpu=0.93 daily="RE6_DU"
 
New "Load.BT_226233_M1" bus1="UC226233.1.2.3.4" phases=3 conn=delta model=2 kv=0.38 kw = 1.0974704763848788 pf=0.92 status=variable vmaxpu=1.5 vminpu=0.93 daily="CO4_DU" 
New "Load.BT_226233_M2" bus1="UC226233.1.2.3.4" phases=3 conn=delta model=3 kv=0.38 kw = 1.0974704763848788 pf=0.92 status=variable vmaxpu=1.5 vminpu=0.93 daily="CO4_DU"
 
New "Load.BT_227077_M1" bus1="UC227077.2.4" phases=1 conn=delta model=2 kv=0.22 kw = 0.21534728680192114 pf=0.92 status=variable vmaxpu=1.5 vminpu=0.93 daily="RU7_DU" 
New "Load.BT_227077_M2" bus1="UC227077.2.4" phases=1 conn=delta model=3 kv=0.22 kw = 0.21534728680192114 pf=0.92 status=variable vmaxpu=1.5 vminpu=0.93 daily="RU7_DU"
 
New "Load.BT_227073_M1" bus1="UC227073.2.4" phases=1 conn=delta model=2 kv=0.22 kw = 0.02534592851829763 pf=0.92 status=variable vmaxpu=1.5 vminpu=0.93 daily="RU3_DU" 
New "Load.BT_227073_M2" bus1="UC227073.2.4" phases=1 conn=delta model=3 kv=0.22 kw = 0.02534592851829763 pf=0.92 status=variable vmaxpu=1.5 vminpu=0.93 daily="RU3_DU"
 
New "Load.BT_2805756_M1" bus1="UC2805756.1.2.3.4" phases=3 conn=delta model=2 kv=0.38 kw = 1.5193814527968876 pf=0.92 status=variable vmaxpu=1.5 vminpu=0.93 daily="RU2_DU" 
New "Load.BT_2805756_M2" bus1="UC2805756.1.2.3.4" phases=3 conn=delta model=3 kv=0.38 kw = 1.5193814527968876 pf=0.92 status=variable vmaxpu=1.5 vminpu=0.93 daily="RU2_DU"
 
New "Load.BT_2805757_M1" bus1="UC2805757.1.2.3.4" phases=3 conn=delta model=2 kv=0.38 kw = 1.1296361418599634 pf=0.92 status=variable vmaxpu=1.5 vminpu=0.93 daily="RU2_DU" 
New "Load.BT_2805757_M2" bus1="UC2805757.1.2.3.4" phases=3 conn=delta model=3 kv=0.38 kw = 1.1296361418599634 pf=0.92 status=variable vmaxpu=1.5 vminpu=0.93 daily="RU2_DU"
 
New "Load.BT_2819390_M1" bus1="UC2819390.1.4" phases=1 conn=delta model=2 kv=0.22 kw = 0.594201070731521 pf=0.92 status=variable vmaxpu=1.5 vminpu=0.93 daily="RU8_DU" 
New "Load.BT_2819390_M2" bus1="UC2819390.1.4" phases=1 conn=delta model=3 kv=0.22 kw = 0.594201070731521 pf=0.92 status=variable vmaxpu=1.5 vminpu=0.93 daily="RU8_DU"
 
New "Load.BT_2819375_M1" bus1="UC2819375.1.4" phases=1 conn=delta model=2 kv=0.22 kw = 0.0 pf=0.92 status=variable vmaxpu=1.5 vminpu=0.93 daily="RU2_DU" 
New "Load.BT_2819375_M2" bus1="UC2819375.1.4" phases=1 conn=delta model=3 kv=0.22 kw = 0.0 pf=0.92 status=variable vmaxpu=1.5 vminpu=0.93 daily="RU2_DU"
 
New "Load.BT_2819355_M1" bus1="UC2819355.1.4" phases=1 conn=delta model=2 kv=0.22 kw = 0.1435970845819993 pf=0.92 status=variable vmaxpu=1.5 vminpu=0.93 daily="RU1_DU" 
New "Load.BT_2819355_M2" bus1="UC2819355.1.4" phases=1 conn=delta model=3 kv=0.22 kw = 0.1435970845819993 pf=0.92 status=variable vmaxpu=1.5 vminpu=0.93 daily="RU1_DU"
 
New "Load.BT_2822268_M1" bus1="UC2822268.2.4" phases=1 conn=delta model=2 kv=0.22 kw = 0.26791585778317795 pf=0.92 status=variable vmaxpu=1.5 vminpu=0.93 daily="RU6_DU" 
New "Load.BT_2822268_M2" bus1="UC2822268.2.4" phases=1 conn=delta model=3 kv=0.22 kw = 0.26791585778317795 pf=0.92 status=variable vmaxpu=1.5 vminpu=0.93 daily="RU6_DU"
 
New "Load.BT_2806028_M1" bus1="UC2806028.2.4" phases=1 conn=delta model=2 kv=0.22 kw = 0.2246281427701754 pf=0.92 status=variable vmaxpu=1.5 vminpu=0.93 daily="RU6_DU" 
New "Load.BT_2806028_M2" bus1="UC2806028.2.4" phases=1 conn=delta model=3 kv=0.22 kw = 0.2246281427701754 pf=0.92 status=variable vmaxpu=1.5 vminpu=0.93 daily="RU6_DU"
 
New "Load.BT_2806039_M1" bus1="UC2806039.1.2.3.4" phases=3 conn=delta model=2 kv=0.38 kw = 1.096652946083772 pf=0.92 status=variable vmaxpu=1.5 vminpu=0.93 daily="RU7_DU" 
New "Load.BT_2806039_M2" bus1="UC2806039.1.2.3.4" phases=3 conn=delta model=3 kv=0.38 kw = 1.096652946083772 pf=0.92 status=variable vmaxpu=1.5 vminpu=0.93 daily="RU7_DU"
 
New "Load.BT_2805793_M1" bus1="UC2805793.2.4" phases=1 conn=delta model=2 kv=0.22 kw = 0.1521463009582556 pf=0.92 status=variable vmaxpu=1.5 vminpu=0.93 daily="RU4_DU" 
New "Load.BT_2805793_M2" bus1="UC2805793.2.4" phases=1 conn=delta model=3 kv=0.22 kw = 0.1521463009582556 pf=0.92 status=variable vmaxpu=1.5 vminpu=0.93 daily="RU4_DU"
 
New "Load.BT_2805784_M1" bus1="UC2805784.1.4" phases=1 conn=delta model=2 kv=0.22 kw = 0.17059704743175452 pf=0.92 status=variable vmaxpu=1.5 vminpu=0.93 daily="RU5_DU" 
New "Load.BT_2805784_M2" bus1="UC2805784.1.4" phases=1 conn=delta model=3 kv=0.22 kw = 0.17059704743175452 pf=0.92 status=variable vmaxpu=1.5 vminpu=0.93 daily="RU5_DU"
 
New "Load.BT_2805785_M1" bus1="UC2805785.1.4" phases=1 conn=delta model=2 kv=0.22 kw = 0.027094593808449304 pf=0.92 status=variable vmaxpu=1.5 vminpu=0.93 daily="RU2_DU" 
New "Load.BT_2805785_M2" bus1="UC2805785.1.4" phases=1 conn=delta model=3 kv=0.22 kw = 0.027094593808449304 pf=0.92 status=variable vmaxpu=1.5 vminpu=0.93 daily="RU2_DU"
 
New "Load.BT_2805790_M1" bus1="UC2805790.2.4" phases=1 conn=delta model=2 kv=0.22 kw = 0.11839944336681471 pf=0.92 status=variable vmaxpu=1.5 vminpu=0.93 daily="RU5_DU" 
New "Load.BT_2805790_M2" bus1="UC2805790.2.4" phases=1 conn=delta model=3 kv=0.22 kw = 0.11839944336681471 pf=0.92 status=variable vmaxpu=1.5 vminpu=0.93 daily="RU5_DU"
 
New "Load.BT_2805782_M1" bus1="UC2805782.2.4" phases=1 conn=delta model=2 kv=0.22 kw = 0.06811573249849143 pf=0.92 status=variable vmaxpu=1.5 vminpu=0.93 daily="RU8_DU" 
New "Load.BT_2805782_M2" bus1="UC2805782.2.4" phases=1 conn=delta model=3 kv=0.22 kw = 0.06811573249849143 pf=0.92 status=variable vmaxpu=1.5 vminpu=0.93 daily="RU8_DU"
 
New "Load.BT_2805766_M1" bus1="UC2805766.2.4" phases=1 conn=delta model=2 kv=0.22 kw = 0.1509220334237116 pf=0.92 status=variable vmaxpu=1.5 vminpu=0.93 daily="RU6_DU" 
New "Load.BT_2805766_M2" bus1="UC2805766.2.4" phases=1 conn=delta model=3 kv=0.22 kw = 0.1509220334237116 pf=0.92 status=variable vmaxpu=1.5 vminpu=0.93 daily="RU6_DU"
 
New "Load.BT_2817050_M1" bus1="UC2817050.2.4" phases=1 conn=delta model=2 kv=0.22 kw = 0.1493738405562459 pf=0.92 status=variable vmaxpu=1.5 vminpu=0.93 daily="RU7_DU" 
New "Load.BT_2817050_M2" bus1="UC2817050.2.4" phases=1 conn=delta model=3 kv=0.22 kw = 0.1493738405562459 pf=0.92 status=variable vmaxpu=1.5 vminpu=0.93 daily="RU7_DU"
 
New "Load.BT_2818311_M1" bus1="UC2818311.2.4" phases=1 conn=delta model=2 kv=0.22 kw = 0.3022089309403961 pf=0.92 status=variable vmaxpu=1.5 vminpu=0.93 daily="RU2_DU" 
New "Load.BT_2818311_M2" bus1="UC2818311.2.4" phases=1 conn=delta model=3 kv=0.22 kw = 0.3022089309403961 pf=0.92 status=variable vmaxpu=1.5 vminpu=0.93 daily="RU2_DU"
 
New "Load.BT_2825858_M1" bus1="UC2825858.2.4" phases=1 conn=delta model=2 kv=0.22 kw = 0.18358986982296177 pf=0.92 status=variable vmaxpu=1.5 vminpu=0.93 daily="RU4_DU" 
New "Load.BT_2825858_M2" bus1="UC2825858.2.4" phases=1 conn=delta model=3 kv=0.22 kw = 0.18358986982296177 pf=0.92 status=variable vmaxpu=1.5 vminpu=0.93 daily="RU4_DU"
 
New "Load.BT_2817028_M1" bus1="UC2817028.1.4" phases=1 conn=delta model=2 kv=0.22 kw = 0.7391281611538432 pf=0.92 status=variable vmaxpu=1.5 vminpu=0.93 daily="RU8_DU" 
New "Load.BT_2817028_M2" bus1="UC2817028.1.4" phases=1 conn=delta model=3 kv=0.22 kw = 0.7391281611538432 pf=0.92 status=variable vmaxpu=1.5 vminpu=0.93 daily="RU8_DU"
 
New "Load.BT_2817013_M1" bus1="UC2817013.1.4" phases=1 conn=delta model=2 kv=0.22 kw = 0.05431270396778063 pf=0.92 status=variable vmaxpu=1.5 vminpu=0.93 daily="RU3_DU" 
New "Load.BT_2817013_M2" bus1="UC2817013.1.4" phases=1 conn=delta model=3 kv=0.22 kw = 0.05431270396778063 pf=0.92 status=variable vmaxpu=1.5 vminpu=0.93 daily="RU3_DU"
 
New "Load.BT_226211_M1" bus1="UC226211.1.4" phases=1 conn=delta model=2 kv=0.22 kw = 0.33138772427257224 pf=0.92 status=variable vmaxpu=1.5 vminpu=0.93 daily="RU2_DU" 
New "Load.BT_226211_M2" bus1="UC226211.1.4" phases=1 conn=delta model=3 kv=0.22 kw = 0.33138772427257224 pf=0.92 status=variable vmaxpu=1.5 vminpu=0.93 daily="RU2_DU"
 
New "Load.BT_205798_M1" bus1="UC205798.1.4" phases=1 conn=delta model=2 kv=0.22 kw = 0.026735358179603323 pf=0.92 status=variable vmaxpu=1.5 vminpu=0.93 daily="RU5_DU" 
New "Load.BT_205798_M2" bus1="UC205798.1.4" phases=1 conn=delta model=3 kv=0.22 kw = 0.026735358179603323 pf=0.92 status=variable vmaxpu=1.5 vminpu=0.93 daily="RU5_DU"
 
New "Load.BT_221678_M1" bus1="UC221678.1.4" phases=1 conn=delta model=2 kv=0.22 kw = 0.11043583140115394 pf=0.92 status=variable vmaxpu=1.5 vminpu=0.93 daily="RU3_DU" 
New "Load.BT_221678_M2" bus1="UC221678.1.4" phases=1 conn=delta model=3 kv=0.22 kw = 0.11043583140115394 pf=0.92 status=variable vmaxpu=1.5 vminpu=0.93 daily="RU3_DU"
 
New "Load.BT_205762_M1" bus1="UC205762.2.4" phases=1 conn=delta model=2 kv=0.22 kw = 0.5116054039051422 pf=0.92 status=variable vmaxpu=1.5 vminpu=0.93 daily="RU7_DU" 
New "Load.BT_205762_M2" bus1="UC205762.2.4" phases=1 conn=delta model=3 kv=0.22 kw = 0.5116054039051422 pf=0.92 status=variable vmaxpu=1.5 vminpu=0.93 daily="RU7_DU"
 
New "Load.BT_205763_M1" bus1="UC205763.1.2.4" phases=2 conn=delta model=2 kv=0.44 kw = 0.0 pf=0.92 status=variable vmaxpu=1.5 vminpu=0.93 daily="RU5_DU" 
New "Load.BT_205763_M2" bus1="UC205763.1.2.4" phases=2 conn=delta model=3 kv=0.44 kw = 0.0 pf=0.92 status=variable vmaxpu=1.5 vminpu=0.93 daily="RU5_DU"
 
New "Load.BT_205767_M1" bus1="UC205767.1.2.4" phases=2 conn=delta model=2 kv=0.44 kw = 0.32721932522511854 pf=0.92 status=variable vmaxpu=1.5 vminpu=0.93 daily="RU2_DU" 
New "Load.BT_205767_M2" bus1="UC205767.1.2.4" phases=2 conn=delta model=3 kv=0.44 kw = 0.32721932522511854 pf=0.92 status=variable vmaxpu=1.5 vminpu=0.93 daily="RU2_DU"
 
New "Load.BT_221287_M1" bus1="UC221287.1.2.3.4" phases=3 conn=delta model=2 kv=0.38 kw = 0.5085446837893562 pf=0.92 status=variable vmaxpu=1.5 vminpu=0.93 daily="RU2_DU" 
New "Load.BT_221287_M2" bus1="UC221287.1.2.3.4" phases=3 conn=delta model=3 kv=0.38 kw = 0.5085446837893562 pf=0.92 status=variable vmaxpu=1.5 vminpu=0.93 daily="RU2_DU"
 
New "Load.BT_205749_M1" bus1="UC205749.1.2.4" phases=2 conn=delta model=2 kv=0.44 kw = 0.21739063563348324 pf=0.92 status=variable vmaxpu=1.5 vminpu=0.93 daily="RU8_DU" 
New "Load.BT_205749_M2" bus1="UC205749.1.2.4" phases=2 conn=delta model=3 kv=0.44 kw = 0.21739063563348324 pf=0.92 status=variable vmaxpu=1.5 vminpu=0.93 daily="RU8_DU"
 
New "Load.BT_205751_M1" bus1="UC205751.2.4" phases=1 conn=delta model=2 kv=0.22 kw = 0.09838794128633863 pf=0.92 status=variable vmaxpu=1.5 vminpu=0.93 daily="RU4_DU" 
New "Load.BT_205751_M2" bus1="UC205751.2.4" phases=1 conn=delta model=3 kv=0.22 kw = 0.09838794128633863 pf=0.92 status=variable vmaxpu=1.5 vminpu=0.93 daily="RU4_DU"
 
New "Load.BT_205752_M1" bus1="UC205752.1.2.3.4" phases=3 conn=delta model=2 kv=0.38 kw = 0.3466136524393087 pf=0.92 status=variable vmaxpu=1.5 vminpu=0.93 daily="RU1_DU" 
New "Load.BT_205752_M2" bus1="UC205752.1.2.3.4" phases=3 conn=delta model=3 kv=0.38 kw = 0.3466136524393087 pf=0.92 status=variable vmaxpu=1.5 vminpu=0.93 daily="RU1_DU"
 
New "Load.BT_205753_M1" bus1="UC205753.2.4" phases=1 conn=delta model=2 kv=0.22 kw = 0.02965547960684258 pf=0.92 status=variable vmaxpu=1.5 vminpu=0.93 daily="CO6_DU" 
New "Load.BT_205753_M2" bus1="UC205753.2.4" phases=1 conn=delta model=3 kv=0.22 kw = 0.02965547960684258 pf=0.92 status=variable vmaxpu=1.5 vminpu=0.93 daily="CO6_DU"
 
New "Load.BT_205754_M1" bus1="UC205754.1.2.3.4" phases=3 conn=delta model=2 kv=0.38 kw = 0.3101439735037695 pf=0.92 status=variable vmaxpu=1.5 vminpu=0.93 daily="RU8_DU" 
New "Load.BT_205754_M2" bus1="UC205754.1.2.3.4" phases=3 conn=delta model=3 kv=0.38 kw = 0.3101439735037695 pf=0.92 status=variable vmaxpu=1.5 vminpu=0.93 daily="RU8_DU"
 
New "Load.BT_205755_M1" bus1="UC205755.1.4" phases=1 conn=delta model=2 kv=0.22 kw = 0.20367263987917736 pf=0.92 status=variable vmaxpu=1.5 vminpu=0.93 daily="RU3_DU" 
New "Load.BT_205755_M2" bus1="UC205755.1.4" phases=1 conn=delta model=3 kv=0.22 kw = 0.20367263987917736 pf=0.92 status=variable vmaxpu=1.5 vminpu=0.93 daily="RU3_DU"
 
New "Load.BT_205747_M1" bus1="UC205747.1.4" phases=1 conn=delta model=2 kv=0.22 kw = 0.21126927386776911 pf=0.92 status=variable vmaxpu=1.5 vminpu=0.93 daily="RU1_DU" 
New "Load.BT_205747_M2" bus1="UC205747.1.4" phases=1 conn=delta model=3 kv=0.22 kw = 0.21126927386776911 pf=0.92 status=variable vmaxpu=1.5 vminpu=0.93 daily="RU1_DU"
 
New "Load.BT_205746_M1" bus1="UC205746.1.4" phases=1 conn=delta model=2 kv=0.22 kw = 0.014492709042232217 pf=0.92 status=variable vmaxpu=1.5 vminpu=0.93 daily="RU8_DU" 
New "Load.BT_205746_M2" bus1="UC205746.1.4" phases=1 conn=delta model=3 kv=0.22 kw = 0.014492709042232217 pf=0.92 status=variable vmaxpu=1.5 vminpu=0.93 daily="RU8_DU"
 
New "Load.BT_220652_M1" bus1="UC220652.1.4" phases=1 conn=delta model=2 kv=0.22 kw = 0.23934511132216307 pf=0.92 status=variable vmaxpu=1.5 vminpu=0.93 daily="RU5_DU" 
New "Load.BT_220652_M2" bus1="UC220652.1.4" phases=1 conn=delta model=3 kv=0.22 kw = 0.23934511132216307 pf=0.92 status=variable vmaxpu=1.5 vminpu=0.93 daily="RU5_DU"
 
New "Load.BT_221021_M1" bus1="UC221021.1.4" phases=1 conn=delta model=2 kv=0.22 kw = 0.24593554379977062 pf=0.92 status=variable vmaxpu=1.5 vminpu=0.93 daily="RU2_DU" 
New "Load.BT_221021_M2" bus1="UC221021.1.4" phases=1 conn=delta model=3 kv=0.22 kw = 0.24593554379977062 pf=0.92 status=variable vmaxpu=1.5 vminpu=0.93 daily="RU2_DU"
 
New "Load.BT_205739_M1" bus1="UC205739.1.4" phases=1 conn=delta model=2 kv=0.22 kw = 0.515890810495817 pf=0.92 status=variable vmaxpu=1.5 vminpu=0.93 daily="RE5_DU" 
New "Load.BT_205739_M2" bus1="UC205739.1.4" phases=1 conn=delta model=3 kv=0.22 kw = 0.515890810495817 pf=0.92 status=variable vmaxpu=1.5 vminpu=0.93 daily="RE5_DU"
 
New "Load.BT_205744_M1" bus1="UC205744.1.2.3.4" phases=3 conn=delta model=2 kv=0.38 kw = 0.09548342207001186 pf=0.92 status=variable vmaxpu=1.5 vminpu=0.93 daily="RU5_DU" 
New "Load.BT_205744_M2" bus1="UC205744.1.2.3.4" phases=3 conn=delta model=3 kv=0.38 kw = 0.09548342207001186 pf=0.92 status=variable vmaxpu=1.5 vminpu=0.93 daily="RU5_DU"
 
New "Load.BT_205745_M1" bus1="UC205745.1.2.3.4" phases=3 conn=delta model=2 kv=0.38 kw = 0.19418599272311962 pf=0.92 status=variable vmaxpu=1.5 vminpu=0.93 daily="RU7_DU" 
New "Load.BT_205745_M2" bus1="UC205745.1.2.3.4" phases=3 conn=delta model=3 kv=0.38 kw = 0.19418599272311962 pf=0.92 status=variable vmaxpu=1.5 vminpu=0.93 daily="RU7_DU"
 
New "Load.BT_205737_M1" bus1="UC205737.2.4" phases=1 conn=delta model=2 kv=0.22 kw = 0.2988823279856092 pf=0.92 status=variable vmaxpu=1.5 vminpu=0.93 daily="RE6_DU" 
New "Load.BT_205737_M2" bus1="UC205737.2.4" phases=1 conn=delta model=3 kv=0.22 kw = 0.2988823279856092 pf=0.92 status=variable vmaxpu=1.5 vminpu=0.93 daily="RE6_DU"
 
New "Load.BT_225866_M1" bus1="UC225866.1.2.3.4" phases=3 conn=delta model=2 kv=0.38 kw = 0.15026514764419308 pf=0.92 status=variable vmaxpu=1.5 vminpu=0.93 daily="RU3_DU" 
New "Load.BT_225866_M2" bus1="UC225866.1.2.3.4" phases=3 conn=delta model=3 kv=0.38 kw = 0.15026514764419308 pf=0.92 status=variable vmaxpu=1.5 vminpu=0.93 daily="RU3_DU"
 
New "Load.BT_228021_M1" bus1="UC228021.2.4" phases=1 conn=delta model=2 kv=0.22 kw = 0.2829921197823554 pf=0.92 status=variable vmaxpu=1.5 vminpu=0.93 daily="RU4_DU" 
New "Load.BT_228021_M2" bus1="UC228021.2.4" phases=1 conn=delta model=3 kv=0.22 kw = 0.2829921197823554 pf=0.92 status=variable vmaxpu=1.5 vminpu=0.93 daily="RU4_DU"
 
New "Load.BT_223629_M1" bus1="UC223629.1.4" phases=1 conn=delta model=2 kv=0.22 kw = 0.044389208394808956 pf=0.92 status=variable vmaxpu=1.5 vminpu=0.93 daily="RE1_DU" 
New "Load.BT_223629_M2" bus1="UC223629.1.4" phases=1 conn=delta model=3 kv=0.22 kw = 0.044389208394808956 pf=0.92 status=variable vmaxpu=1.5 vminpu=0.93 daily="RE1_DU"
 
New "Load.BT_217024_M1" bus1="UC217024.1.4" phases=1 conn=delta model=2 kv=0.22 kw = 0.17177991663968276 pf=0.92 status=variable vmaxpu=1.5 vminpu=0.93 daily="RU7_DU" 
New "Load.BT_217024_M2" bus1="UC217024.1.4" phases=1 conn=delta model=3 kv=0.22 kw = 0.17177991663968276 pf=0.92 status=variable vmaxpu=1.5 vminpu=0.93 daily="RU7_DU"
 
New "Load.BT_223627_M1" bus1="UC223627.2.4" phases=1 conn=delta model=2 kv=0.22 kw = 0.02608687627601799 pf=0.92 status=variable vmaxpu=1.5 vminpu=0.93 daily="RU8_DU" 
New "Load.BT_223627_M2" bus1="UC223627.2.4" phases=1 conn=delta model=3 kv=0.22 kw = 0.02608687627601799 pf=0.92 status=variable vmaxpu=1.5 vminpu=0.93 daily="RU8_DU"
 
New "Load.BT_205672_M1" bus1="UC205672.1.4" phases=1 conn=delta model=2 kv=0.22 kw = 0.08189567705162645 pf=0.92 status=variable vmaxpu=1.5 vminpu=0.93 daily="RU6_DU" 
New "Load.BT_205672_M2" bus1="UC205672.1.4" phases=1 conn=delta model=3 kv=0.22 kw = 0.08189567705162645 pf=0.92 status=variable vmaxpu=1.5 vminpu=0.93 daily="RU6_DU"
 
New "Load.BT_205673_M1" bus1="UC205673.2.4" phases=1 conn=delta model=2 kv=0.22 kw = 0.20793327797628267 pf=0.92 status=variable vmaxpu=1.5 vminpu=0.93 daily="RU4_DU" 
New "Load.BT_205673_M2" bus1="UC205673.2.4" phases=1 conn=delta model=3 kv=0.22 kw = 0.20793327797628267 pf=0.92 status=variable vmaxpu=1.5 vminpu=0.93 daily="RU4_DU"
 
New "Load.BT_205666_M1" bus1="UC205666.1.2.3.4" phases=3 conn=delta model=2 kv=0.38 kw = 2.415587247999442 pf=0.92 status=variable vmaxpu=1.5 vminpu=0.93 daily="RU2_DU" 
New "Load.BT_205666_M2" bus1="UC205666.1.2.3.4" phases=3 conn=delta model=3 kv=0.38 kw = 2.415587247999442 pf=0.92 status=variable vmaxpu=1.5 vminpu=0.93 daily="RU2_DU"
 
New "Load.BT_205668_M1" bus1="UC205668.1.4" phases=1 conn=delta model=2 kv=0.22 kw = 0.5776894207321811 pf=0.92 status=variable vmaxpu=1.5 vminpu=0.93 daily="RU1_DU" 
New "Load.BT_205668_M2" bus1="UC205668.1.4" phases=1 conn=delta model=3 kv=0.22 kw = 0.5776894207321811 pf=0.92 status=variable vmaxpu=1.5 vminpu=0.93 daily="RU1_DU"
 
New "Load.BT_205669_M1" bus1="UC205669.2.4" phases=1 conn=delta model=2 kv=0.22 kw = 0.029871987182279344 pf=0.92 status=variable vmaxpu=1.5 vminpu=0.93 daily="RU3_DU" 
New "Load.BT_205669_M2" bus1="UC205669.2.4" phases=1 conn=delta model=3 kv=0.22 kw = 0.029871987182279344 pf=0.92 status=variable vmaxpu=1.5 vminpu=0.93 daily="RU3_DU"
 
New "Load.BT_205670_M1" bus1="UC205670.2.4" phases=1 conn=delta model=2 kv=0.22 kw = 0.0760731504791278 pf=0.92 status=variable vmaxpu=1.5 vminpu=0.93 daily="RU4_DU" 
New "Load.BT_205670_M2" bus1="UC205670.2.4" phases=1 conn=delta model=3 kv=0.22 kw = 0.0760731504791278 pf=0.92 status=variable vmaxpu=1.5 vminpu=0.93 daily="RU4_DU"
 
New "Load.BT_205671_M1" bus1="UC205671.2.4" phases=1 conn=delta model=2 kv=0.22 kw = 0.26231803366440315 pf=0.92 status=variable vmaxpu=1.5 vminpu=0.93 daily="RU8_DU" 
New "Load.BT_205671_M2" bus1="UC205671.2.4" phases=1 conn=delta model=3 kv=0.22 kw = 0.26231803366440315 pf=0.92 status=variable vmaxpu=1.5 vminpu=0.93 daily="RU8_DU"
 
New "Load.BT_206078_M1" bus1="UC206078.1.4" phases=1 conn=delta model=2 kv=0.22 kw = 0.1287422137631718 pf=0.92 status=variable vmaxpu=1.5 vminpu=0.93 daily="RU1_DU" 
New "Load.BT_206078_M2" bus1="UC206078.1.4" phases=1 conn=delta model=3 kv=0.22 kw = 0.1287422137631718 pf=0.92 status=variable vmaxpu=1.5 vminpu=0.93 daily="RU1_DU"
 
New "Load.BT_206080_M1" bus1="UC206080.2.4" phases=1 conn=delta model=2 kv=0.22 kw = 0.4107950125872901 pf=0.92 status=variable vmaxpu=1.5 vminpu=0.93 daily="RU4_DU" 
New "Load.BT_206080_M2" bus1="UC206080.2.4" phases=1 conn=delta model=3 kv=0.22 kw = 0.4107950125872901 pf=0.92 status=variable vmaxpu=1.5 vminpu=0.93 daily="RU4_DU"
 
New "Load.BT_205662_M1" bus1="UC205662.1.4" phases=1 conn=delta model=2 kv=0.22 kw = 0.30067412860382847 pf=0.92 status=variable vmaxpu=1.5 vminpu=0.93 daily="RU6_DU" 
New "Load.BT_205662_M2" bus1="UC205662.1.4" phases=1 conn=delta model=3 kv=0.22 kw = 0.30067412860382847 pf=0.92 status=variable vmaxpu=1.5 vminpu=0.93 daily="RU6_DU"
 
New "Load.BT_205664_M1" bus1="UC205664.1.2.4" phases=2 conn=delta model=2 kv=0.44 kw = 0.05883876263176235 pf=0.92 status=variable vmaxpu=1.5 vminpu=0.93 daily="RU3_DU" 
New "Load.BT_205664_M2" bus1="UC205664.1.2.4" phases=2 conn=delta model=3 kv=0.44 kw = 0.05883876263176235 pf=0.92 status=variable vmaxpu=1.5 vminpu=0.93 daily="RU3_DU"
 
New "Load.BT_205655_M1" bus1="UC205655.1.4" phases=1 conn=delta model=2 kv=0.22 kw = 0.14513480154641803 pf=0.92 status=variable vmaxpu=1.5 vminpu=0.93 daily="RU5_DU" 
New "Load.BT_205655_M2" bus1="UC205655.1.4" phases=1 conn=delta model=3 kv=0.22 kw = 0.14513480154641803 pf=0.92 status=variable vmaxpu=1.5 vminpu=0.93 daily="RU5_DU"
 
New "Load.BT_205658_M1" bus1="UC205658.1.4" phases=1 conn=delta model=2 kv=0.22 kw = 0.2008331172648974 pf=0.92 status=variable vmaxpu=1.5 vminpu=0.93 daily="RU4_DU" 
New "Load.BT_205658_M2" bus1="UC205658.1.4" phases=1 conn=delta model=3 kv=0.22 kw = 0.2008331172648974 pf=0.92 status=variable vmaxpu=1.5 vminpu=0.93 daily="RU4_DU"
 
New "Load.BT_205659_M1" bus1="UC205659.1.2.3.4" phases=3 conn=delta model=2 kv=0.38 kw = 0.24024292689462878 pf=0.92 status=variable vmaxpu=1.5 vminpu=0.93 daily="RU7_DU" 
New "Load.BT_205659_M2" bus1="UC205659.1.2.3.4" phases=3 conn=delta model=3 kv=0.38 kw = 0.24024292689462878 pf=0.92 status=variable vmaxpu=1.5 vminpu=0.93 daily="RU7_DU"
 
New "Load.BT_206061_M1" bus1="UC206061.1.4" phases=1 conn=delta model=2 kv=0.22 kw = 0.04260096426831157 pf=0.92 status=variable vmaxpu=1.5 vminpu=0.93 daily="RU4_DU" 
New "Load.BT_206061_M2" bus1="UC206061.1.4" phases=1 conn=delta model=3 kv=0.22 kw = 0.04260096426831157 pf=0.92 status=variable vmaxpu=1.5 vminpu=0.93 daily="RU4_DU"
 
New "Load.BT_205649_M1" bus1="UC205649.1.2.3.4" phases=3 conn=delta model=2 kv=0.38 kw = 0.5223071698234903 pf=0.92 status=variable vmaxpu=1.5 vminpu=0.93 daily="RU3_DU" 
New "Load.BT_205649_M2" bus1="UC205649.1.2.3.4" phases=3 conn=delta model=3 kv=0.38 kw = 0.5223071698234903 pf=0.92 status=variable vmaxpu=1.5 vminpu=0.93 daily="RU3_DU"
 
New "Load.BT_205650_M1" bus1="UC205650.1.4" phases=1 conn=delta model=2 kv=0.22 kw = 0.14039258923135964 pf=0.92 status=variable vmaxpu=1.5 vminpu=0.93 daily="RU6_DU" 
New "Load.BT_205650_M2" bus1="UC205650.1.4" phases=1 conn=delta model=3 kv=0.22 kw = 0.14039258923135964 pf=0.92 status=variable vmaxpu=1.5 vminpu=0.93 daily="RU6_DU"
 
New "Load.BT_205651_M1" bus1="UC205651.1.2.3.4" phases=3 conn=delta model=2 kv=0.38 kw = 0.7095257426421678 pf=0.92 status=variable vmaxpu=1.5 vminpu=0.93 daily="RU7_DU" 
New "Load.BT_205651_M2" bus1="UC205651.1.2.3.4" phases=3 conn=delta model=3 kv=0.38 kw = 0.7095257426421678 pf=0.92 status=variable vmaxpu=1.5 vminpu=0.93 daily="RU7_DU"
 
New "Load.BT_205653_M1" bus1="UC205653.1.2.3.4" phases=3 conn=delta model=2 kv=0.38 kw = 0.04927521074358954 pf=0.92 status=variable vmaxpu=1.5 vminpu=0.93 daily="RU8_DU" 
New "Load.BT_205653_M2" bus1="UC205653.1.2.3.4" phases=3 conn=delta model=3 kv=0.38 kw = 0.04927521074358954 pf=0.92 status=variable vmaxpu=1.5 vminpu=0.93 daily="RU8_DU"
 
New "Load.BT_205654_M1" bus1="UC205654.1.4" phases=1 conn=delta model=2 kv=0.22 kw = 0.9276041555756738 pf=0.92 status=variable vmaxpu=1.5 vminpu=0.93 daily="RU1_DU" 
New "Load.BT_205654_M2" bus1="UC205654.1.4" phases=1 conn=delta model=3 kv=0.22 kw = 0.9276041555756738 pf=0.92 status=variable vmaxpu=1.5 vminpu=0.93 daily="RU1_DU"
 
New "Load.BT_205648_M1" bus1="UC205648.1.4" phases=1 conn=delta model=2 kv=0.22 kw = 0.21091433374154808 pf=0.92 status=variable vmaxpu=1.5 vminpu=0.93 daily="RU3_DU" 
New "Load.BT_205648_M2" bus1="UC205648.1.4" phases=1 conn=delta model=3 kv=0.22 kw = 0.21091433374154808 pf=0.92 status=variable vmaxpu=1.5 vminpu=0.93 daily="RU3_DU"
 
New "Load.BT_205645_M1" bus1="UC205645.2.4" phases=1 conn=delta model=2 kv=0.22 kw = 0.0333332307971341 pf=0.92 status=variable vmaxpu=1.5 vminpu=0.93 daily="RU8_DU" 
New "Load.BT_205645_M2" bus1="UC205645.2.4" phases=1 conn=delta model=3 kv=0.22 kw = 0.0333332307971341 pf=0.92 status=variable vmaxpu=1.5 vminpu=0.93 daily="RU8_DU"
 
New "Load.BT_222266_M1" bus1="UC222266.2.4" phases=1 conn=delta model=2 kv=0.22 kw = 0.2417671447523169 pf=0.92 status=variable vmaxpu=1.5 vminpu=0.93 daily="RU2_DU" 
New "Load.BT_222266_M2" bus1="UC222266.2.4" phases=1 conn=delta model=3 kv=0.22 kw = 0.2417671447523169 pf=0.92 status=variable vmaxpu=1.5 vminpu=0.93 daily="RU2_DU"
 
New "Load.BT_205731_M1" bus1="UC205731.1.4" phases=1 conn=delta model=2 kv=0.22 kw = 0.043168278950086014 pf=0.92 status=variable vmaxpu=1.5 vminpu=0.93 daily="CO4_DU" 
New "Load.BT_205731_M2" bus1="UC205731.1.4" phases=1 conn=delta model=3 kv=0.22 kw = 0.043168278950086014 pf=0.92 status=variable vmaxpu=1.5 vminpu=0.93 daily="CO4_DU"
 
New "Load.BT_205734_M1" bus1="UC205734.1.2.4" phases=2 conn=delta model=2 kv=0.44 kw = 0.4867097638124345 pf=0.92 status=variable vmaxpu=1.5 vminpu=0.93 daily="RU7_DU" 
New "Load.BT_205734_M2" bus1="UC205734.1.2.4" phases=2 conn=delta model=3 kv=0.44 kw = 0.4867097638124345 pf=0.92 status=variable vmaxpu=1.5 vminpu=0.93 daily="RU7_DU"
 
New "Load.BT_219392_M1" bus1="UC219392.1.4" phases=1 conn=delta model=2 kv=0.22 kw = 0.022228826628298604 pf=0.92 status=variable vmaxpu=1.5 vminpu=0.93 daily="RU6_DU" 
New "Load.BT_219392_M2" bus1="UC219392.1.4" phases=1 conn=delta model=3 kv=0.22 kw = 0.022228826628298604 pf=0.92 status=variable vmaxpu=1.5 vminpu=0.93 daily="RU6_DU"
 
New "Load.BT_219394_M1" bus1="UC219394.1.4" phases=1 conn=delta model=2 kv=0.22 kw = 0.448102897601277 pf=0.92 status=variable vmaxpu=1.5 vminpu=0.93 daily="RU2_DU" 
New "Load.BT_219394_M2" bus1="UC219394.1.4" phases=1 conn=delta model=3 kv=0.22 kw = 0.448102897601277 pf=0.92 status=variable vmaxpu=1.5 vminpu=0.93 daily="RU2_DU"
 
New "Load.BT_219377_M1" bus1="UC219377.1.2.4" phases=2 conn=delta model=2 kv=0.44 kw = 3.166563414961368 pf=0.92 status=variable vmaxpu=1.5 vminpu=0.93 daily="PP7_DU" 
New "Load.BT_219377_M2" bus1="UC219377.1.2.4" phases=2 conn=delta model=3 kv=0.44 kw = 3.166563414961368 pf=0.92 status=variable vmaxpu=1.5 vminpu=0.93 daily="PP7_DU"
 
New "Load.BT_219381_M1" bus1="UC219381.1.4" phases=1 conn=delta model=2 kv=0.22 kw = 0.06517524476133675 pf=0.92 status=variable vmaxpu=1.5 vminpu=0.93 daily="RU3_DU" 
New "Load.BT_219381_M2" bus1="UC219381.1.4" phases=1 conn=delta model=3 kv=0.22 kw = 0.06517524476133675 pf=0.92 status=variable vmaxpu=1.5 vminpu=0.93 daily="RU3_DU"
 
New "Load.BT_219384_M1" bus1="UC219384.1.4" phases=1 conn=delta model=2 kv=0.22 kw = 0.09776286714200512 pf=0.92 status=variable vmaxpu=1.5 vminpu=0.93 daily="RU3_DU" 
New "Load.BT_219384_M2" bus1="UC219384.1.4" phases=1 conn=delta model=3 kv=0.22 kw = 0.09776286714200512 pf=0.92 status=variable vmaxpu=1.5 vminpu=0.93 daily="RU3_DU"
 
New "Load.BT_225587_M1" bus1="UC225587.1.4" phases=1 conn=delta model=2 kv=0.22 kw = 0.16022247670495285 pf=0.92 status=variable vmaxpu=1.5 vminpu=0.93 daily="RU3_DU" 
New "Load.BT_225587_M2" bus1="UC225587.1.4" phases=1 conn=delta model=3 kv=0.22 kw = 0.16022247670495285 pf=0.92 status=variable vmaxpu=1.5 vminpu=0.93 daily="RU3_DU"
 
New "Load.BT_205729_M1" bus1="UC205729.1.2.4" phases=2 conn=delta model=2 kv=0.44 kw = 0.14039258923135964 pf=0.92 status=variable vmaxpu=1.5 vminpu=0.93 daily="RU6_DU" 
New "Load.BT_205729_M2" bus1="UC205729.1.2.4" phases=2 conn=delta model=3 kv=0.44 kw = 0.14039258923135964 pf=0.92 status=variable vmaxpu=1.5 vminpu=0.93 daily="RU6_DU"
 
New "Load.BT_205730_M1" bus1="UC205730.2.4" phases=1 conn=delta model=2 kv=0.22 kw = 0.19275303026168847 pf=0.92 status=variable vmaxpu=1.5 vminpu=0.93 daily="RU8_DU" 
New "Load.BT_205730_M2" bus1="UC205730.2.4" phases=1 conn=delta model=3 kv=0.22 kw = 0.19275303026168847 pf=0.92 status=variable vmaxpu=1.5 vminpu=0.93 daily="RU8_DU"
 
New "Load.BT_205717_M1" bus1="UC205717.1.2.3.4" phases=3 conn=delta model=2 kv=0.38 kw = 0.06336482129574407 pf=0.92 status=variable vmaxpu=1.5 vminpu=0.93 daily="RU3_DU" 
New "Load.BT_205717_M2" bus1="UC205717.1.2.3.4" phases=3 conn=delta model=3 kv=0.38 kw = 0.06336482129574407 pf=0.92 status=variable vmaxpu=1.5 vminpu=0.93 daily="RU3_DU"
 
New "Load.BT_205719_M1" bus1="UC205719.2.4" phases=1 conn=delta model=2 kv=0.22 kw = 0.0 pf=0.92 status=variable vmaxpu=1.5 vminpu=0.93 daily="RE6_DU" 
New "Load.BT_205719_M2" bus1="UC205719.2.4" phases=1 conn=delta model=3 kv=0.22 kw = 0.0 pf=0.92 status=variable vmaxpu=1.5 vminpu=0.93 daily="RE6_DU"
 
New "Load.BT_205722_M1" bus1="UC205722.1.2.3.4" phases=3 conn=delta model=2 kv=0.38 kw = 0.08418469115005997 pf=0.92 status=variable vmaxpu=1.5 vminpu=0.93 daily="RU3_DU" 
New "Load.BT_205722_M2" bus1="UC205722.1.2.3.4" phases=3 conn=delta model=3 kv=0.38 kw = 0.08418469115005997 pf=0.92 status=variable vmaxpu=1.5 vminpu=0.93 daily="RU3_DU"
 
New "Load.BT_205727_M1" bus1="UC205727.1.4" phases=1 conn=delta model=2 kv=0.22 kw = 0.10184898354134599 pf=0.92 status=variable vmaxpu=1.5 vminpu=0.93 daily="RU5_DU" 
New "Load.BT_205727_M2" bus1="UC205727.1.4" phases=1 conn=delta model=3 kv=0.22 kw = 0.10184898354134599 pf=0.92 status=variable vmaxpu=1.5 vminpu=0.93 daily="RU5_DU"
 
New "Load.BT_205710_M1" bus1="UC205710.1.2.3.4" phases=3 conn=delta model=2 kv=0.38 kw = 0.27427915503729217 pf=0.92 status=variable vmaxpu=1.5 vminpu=0.93 daily="RU3_DU" 
New "Load.BT_205710_M2" bus1="UC205710.1.2.3.4" phases=3 conn=delta model=3 kv=0.38 kw = 0.27427915503729217 pf=0.92 status=variable vmaxpu=1.5 vminpu=0.93 daily="RU3_DU"
 
New "Load.BT_205711_M1" bus1="UC205711.2.4" phases=1 conn=delta model=2 kv=0.22 kw = 0.1642314859604204 pf=0.92 status=variable vmaxpu=1.5 vminpu=0.93 daily="RU5_DU" 
New "Load.BT_205711_M2" bus1="UC205711.2.4" phases=1 conn=delta model=3 kv=0.22 kw = 0.1642314859604204 pf=0.92 status=variable vmaxpu=1.5 vminpu=0.93 daily="RU5_DU"
 
New "Load.BT_205713_M1" bus1="UC205713.2.4" phases=1 conn=delta model=2 kv=0.22 kw = 0.20005179294799197 pf=0.92 status=variable vmaxpu=1.5 vminpu=0.93 daily="RU3_DU" 
New "Load.BT_205713_M2" bus1="UC205713.2.4" phases=1 conn=delta model=3 kv=0.22 kw = 0.20005179294799197 pf=0.92 status=variable vmaxpu=1.5 vminpu=0.93 daily="RU3_DU"
 
New "Load.BT_219351_M1" bus1="UC219351.2.4" phases=1 conn=delta model=2 kv=0.22 kw = 0.18173817267676579 pf=0.92 status=variable vmaxpu=1.5 vminpu=0.93 daily="RU7_DU" 
New "Load.BT_219351_M2" bus1="UC219351.2.4" phases=1 conn=delta model=3 kv=0.22 kw = 0.18173817267676579 pf=0.92 status=variable vmaxpu=1.5 vminpu=0.93 daily="RU7_DU"
 
New "Load.BT_219353_M1" bus1="UC219353.2.4" phases=1 conn=delta model=2 kv=0.22 kw = 0.273989839547263 pf=0.92 status=variable vmaxpu=1.5 vminpu=0.93 daily="RU1_DU" 
New "Load.BT_219353_M2" bus1="UC219353.2.4" phases=1 conn=delta model=3 kv=0.22 kw = 0.273989839547263 pf=0.92 status=variable vmaxpu=1.5 vminpu=0.93 daily="RU1_DU"
 
New "Load.BT_219354_M1" bus1="UC219354.1.4" phases=1 conn=delta model=2 kv=0.22 kw = 0.11348400962868235 pf=0.92 status=variable vmaxpu=1.5 vminpu=0.93 daily="RU6_DU" 
New "Load.BT_219354_M2" bus1="UC219354.1.4" phases=1 conn=delta model=3 kv=0.22 kw = 0.11348400962868235 pf=0.92 status=variable vmaxpu=1.5 vminpu=0.93 daily="RU6_DU"
 
New "Load.BT_219361_M1" bus1="UC219361.1.2.3.4" phases=3 conn=delta model=2 kv=0.38 kw = 3.7038144574943273 pf=0.92 status=variable vmaxpu=1.5 vminpu=0.93 daily="RU1_DU" 
New "Load.BT_219361_M2" bus1="UC219361.1.2.3.4" phases=3 conn=delta model=3 kv=0.38 kw = 3.7038144574943273 pf=0.92 status=variable vmaxpu=1.5 vminpu=0.93 daily="RU1_DU"
 
New "Load.BT_219363_M1" bus1="UC219363.2.4" phases=1 conn=delta model=2 kv=0.22 kw = 0.05474382865347347 pf=0.92 status=variable vmaxpu=1.5 vminpu=0.93 daily="RU5_DU" 
New "Load.BT_219363_M2" bus1="UC219363.2.4" phases=1 conn=delta model=3 kv=0.22 kw = 0.05474382865347347 pf=0.92 status=variable vmaxpu=1.5 vminpu=0.93 daily="RU5_DU"
 
New "Load.BT_205709_M1" bus1="UC205709.1.4" phases=1 conn=delta model=2 kv=0.22 kw = 0.04435537490702084 pf=0.92 status=variable vmaxpu=1.5 vminpu=0.93 daily="RU3_DU" 
New "Load.BT_205709_M2" bus1="UC205709.1.4" phases=1 conn=delta model=3 kv=0.22 kw = 0.04435537490702084 pf=0.92 status=variable vmaxpu=1.5 vminpu=0.93 daily="RU3_DU"
 
New "Load.BT_225590_M1" bus1="UC225590.2.4" phases=1 conn=delta model=2 kv=0.22 kw = 0.07332215035650384 pf=0.92 status=variable vmaxpu=1.5 vminpu=0.93 daily="RU3_DU" 
New "Load.BT_225590_M2" bus1="UC225590.2.4" phases=1 conn=delta model=3 kv=0.22 kw = 0.07332215035650384 pf=0.92 status=variable vmaxpu=1.5 vminpu=0.93 daily="RU3_DU"
 
New "Load.BT_225591_M1" bus1="UC225591.1.4" phases=1 conn=delta model=2 kv=0.22 kw = 0.03711368104465009 pf=0.92 status=variable vmaxpu=1.5 vminpu=0.93 daily="RU3_DU" 
New "Load.BT_225591_M2" bus1="UC225591.1.4" phases=1 conn=delta model=3 kv=0.22 kw = 0.03711368104465009 pf=0.92 status=variable vmaxpu=1.5 vminpu=0.93 daily="RU3_DU"
 
New "Load.BT_225591_M1" bus1="UC225591.1.4" phases=1 conn=delta model=2 kv=0.22 kw = 0.11157395403605411 pf=0.92 status=variable vmaxpu=1.5 vminpu=0.93 daily="RU4_DU" 
New "Load.BT_225591_M2" bus1="UC225591.1.4" phases=1 conn=delta model=3 kv=0.22 kw = 0.11157395403605411 pf=0.92 status=variable vmaxpu=1.5 vminpu=0.93 daily="RU4_DU"
 
New "Load.BT_225593_M1" bus1="UC225593.2.4" phases=1 conn=delta model=2 kv=0.22 kw = 0.13240367860374977 pf=0.92 status=variable vmaxpu=1.5 vminpu=0.93 daily="RU5_DU" 
New "Load.BT_225593_M2" bus1="UC225593.2.4" phases=1 conn=delta model=3 kv=0.22 kw = 0.13240367860374977 pf=0.92 status=variable vmaxpu=1.5 vminpu=0.93 daily="RU5_DU"
 
New "Load.BT_205706_M1" bus1="UC205706.1.2.4" phases=2 conn=delta model=2 kv=0.44 kw = 0.2478253246221709 pf=0.92 status=variable vmaxpu=1.5 vminpu=0.93 daily="RU8_DU" 
New "Load.BT_205706_M2" bus1="UC205706.1.2.4" phases=2 conn=delta model=3 kv=0.44 kw = 0.2478253246221709 pf=0.92 status=variable vmaxpu=1.5 vminpu=0.93 daily="RU8_DU"
 
New "Load.BT_205707_M1" bus1="UC205707.1.4" phases=1 conn=delta model=2 kv=0.22 kw = 0.005125404281582357 pf=0.92 status=variable vmaxpu=1.5 vminpu=0.93 daily="CO3_DU" 
New "Load.BT_205707_M2" bus1="UC205707.1.4" phases=1 conn=delta model=3 kv=0.22 kw = 0.005125404281582357 pf=0.92 status=variable vmaxpu=1.5 vminpu=0.93 daily="CO3_DU"
 
New "Load.BT_225285_M1" bus1="UC225285.1.4" phases=1 conn=delta model=2 kv=0.22 kw = 0.23759874570486314 pf=0.92 status=variable vmaxpu=1.5 vminpu=0.93 daily="RU2_DU" 
New "Load.BT_225285_M2" bus1="UC225285.1.4" phases=1 conn=delta model=3 kv=0.22 kw = 0.23759874570486314 pf=0.92 status=variable vmaxpu=1.5 vminpu=0.93 daily="RU2_DU"
 
New "Load.BT_225286_M1" bus1="UC225286.1.4" phases=1 conn=delta model=2 kv=0.22 kw = 0.00497912801854153 pf=0.92 status=variable vmaxpu=1.5 vminpu=0.93 daily="RU7_DU" 
New "Load.BT_225286_M2" bus1="UC225286.1.4" phases=1 conn=delta model=3 kv=0.22 kw = 0.00497912801854153 pf=0.92 status=variable vmaxpu=1.5 vminpu=0.93 daily="RU7_DU"
 
New "Load.BT_225289_M1" bus1="UC225289.1.4" phases=1 conn=delta model=2 kv=0.22 kw = 0.26676318101347485 pf=0.92 status=variable vmaxpu=1.5 vminpu=0.93 daily="RU4_DU" 
New "Load.BT_225289_M2" bus1="UC225289.1.4" phases=1 conn=delta model=3 kv=0.22 kw = 0.26676318101347485 pf=0.92 status=variable vmaxpu=1.5 vminpu=0.93 daily="RU4_DU"
 
New "Load.BT_225290_M1" bus1="UC225290.2.4" phases=1 conn=delta model=2 kv=0.22 kw = 0.11858273699632103 pf=0.92 status=variable vmaxpu=1.5 vminpu=0.93 daily="RU3_DU" 
New "Load.BT_225290_M2" bus1="UC225290.2.4" phases=1 conn=delta model=3 kv=0.22 kw = 0.11858273699632103 pf=0.92 status=variable vmaxpu=1.5 vminpu=0.93 daily="RU3_DU"
 
New "Load.BT_205695_M1" bus1="UC205695.1.4" phases=1 conn=delta model=2 kv=0.22 kw = 0.2971005353657605 pf=0.92 status=variable vmaxpu=1.5 vminpu=0.93 daily="RU8_DU" 
New "Load.BT_205695_M2" bus1="UC205695.1.4" phases=1 conn=delta model=3 kv=0.22 kw = 0.2971005353657605 pf=0.92 status=variable vmaxpu=1.5 vminpu=0.93 daily="RU8_DU"
 
New "Load.BT_205699_M1" bus1="UC205699.1.4" phases=1 conn=delta model=2 kv=0.22 kw = 0.0 pf=0.92 status=variable vmaxpu=1.5 vminpu=0.93 daily="RU8_DU" 
New "Load.BT_205699_M2" bus1="UC205699.1.4" phases=1 conn=delta model=3 kv=0.22 kw = 0.0 pf=0.92 status=variable vmaxpu=1.5 vminpu=0.93 daily="RU8_DU"
 
New "Load.BT_205700_M1" bus1="UC205700.1.4" phases=1 conn=delta model=2 kv=0.22 kw = 0.3653832284545787 pf=0.92 status=variable vmaxpu=1.5 vminpu=0.93 daily="RU5_DU" 
New "Load.BT_205700_M2" bus1="UC205700.1.4" phases=1 conn=delta model=3 kv=0.22 kw = 0.3653832284545787 pf=0.92 status=variable vmaxpu=1.5 vminpu=0.93 daily="RU5_DU"
 
New "Load.BT_205703_M1" bus1="UC205703.1.4" phases=1 conn=delta model=2 kv=0.22 kw = 0.0 pf=0.92 status=variable vmaxpu=1.5 vminpu=0.93 daily="RU1_DU" 
New "Load.BT_205703_M2" bus1="UC205703.1.4" phases=1 conn=delta model=3 kv=0.22 kw = 0.0 pf=0.92 status=variable vmaxpu=1.5 vminpu=0.93 daily="RU1_DU"
 
New "Load.BT_218342_M1" bus1="UC218342.1.4" phases=1 conn=delta model=2 kv=0.22 kw = 0.07708745915218283 pf=0.92 status=variable vmaxpu=1.5 vminpu=0.93 daily="RU4_DU" 
New "Load.BT_218342_M2" bus1="UC218342.1.4" phases=1 conn=delta model=3 kv=0.22 kw = 0.07708745915218283 pf=0.92 status=variable vmaxpu=1.5 vminpu=0.93 daily="RU4_DU"
 
New "Load.BT_224968_M1" bus1="UC224968.2.4" phases=1 conn=delta model=2 kv=0.22 kw = 0.338360946428849 pf=0.92 status=variable vmaxpu=1.5 vminpu=0.93 daily="RU1_DU" 
New "Load.BT_224968_M2" bus1="UC224968.2.4" phases=1 conn=delta model=3 kv=0.22 kw = 0.338360946428849 pf=0.92 status=variable vmaxpu=1.5 vminpu=0.93 daily="RU1_DU"
 
New "Load.BT_225281_M1" bus1="UC225281.1.4" phases=1 conn=delta model=2 kv=0.22 kw = 0.12744793608442959 pf=0.92 status=variable vmaxpu=1.5 vminpu=0.93 daily="RE6_DU" 
New "Load.BT_225281_M2" bus1="UC225281.1.4" phases=1 conn=delta model=3 kv=0.22 kw = 0.12744793608442959 pf=0.92 status=variable vmaxpu=1.5 vminpu=0.93 daily="RE6_DU"
 
New "Load.BT_218304_M1" bus1="UC218304.1.2.3.4" phases=3 conn=delta model=2 kv=0.38 kw = 0.1680455706257766 pf=0.92 status=variable vmaxpu=1.5 vminpu=0.93 daily="RU7_DU" 
New "Load.BT_218304_M2" bus1="UC218304.1.2.3.4" phases=3 conn=delta model=3 kv=0.38 kw = 0.1680455706257766 pf=0.92 status=variable vmaxpu=1.5 vminpu=0.93 daily="RU7_DU"
 
New "Load.BT_218305_M1" bus1="UC218305.3.4" phases=1 conn=delta model=2 kv=0.22 kw = 0.26903821594098726 pf=0.92 status=variable vmaxpu=1.5 vminpu=0.93 daily="RU1_DU" 
New "Load.BT_218305_M2" bus1="UC218305.3.4" phases=1 conn=delta model=3 kv=0.22 kw = 0.26903821594098726 pf=0.92 status=variable vmaxpu=1.5 vminpu=0.93 daily="RU1_DU"
 
New "Load.BT_218309_M1" bus1="UC218309.1.4" phases=1 conn=delta model=2 kv=0.22 kw = 0.2607855099305275 pf=0.92 status=variable vmaxpu=1.5 vminpu=0.93 daily="RU1_DU" 
New "Load.BT_218309_M2" bus1="UC218309.1.4" phases=1 conn=delta model=3 kv=0.22 kw = 0.2607855099305275 pf=0.92 status=variable vmaxpu=1.5 vminpu=0.93 daily="RU1_DU"
 
New "Load.BT_218318_M1" bus1="UC218318.1.4" phases=1 conn=delta model=2 kv=0.22 kw = 0.23297954985082894 pf=0.92 status=variable vmaxpu=1.5 vminpu=0.93 daily="RU5_DU" 
New "Load.BT_218318_M2" bus1="UC218318.1.4" phases=1 conn=delta model=3 kv=0.22 kw = 0.23297954985082894 pf=0.92 status=variable vmaxpu=1.5 vminpu=0.93 daily="RU5_DU"
 
New "Load.BT_218320_M1" bus1="UC218320.1.4" phases=1 conn=delta model=2 kv=0.22 kw = 0.0 pf=0.92 status=variable vmaxpu=1.5 vminpu=0.93 daily="CO4_DU" 
New "Load.BT_218320_M2" bus1="UC218320.1.4" phases=1 conn=delta model=3 kv=0.22 kw = 0.0 pf=0.92 status=variable vmaxpu=1.5 vminpu=0.93 daily="CO4_DU"
 
New "Load.BT_218323_M1" bus1="UC218323.1.4" phases=1 conn=delta model=2 kv=0.22 kw = 0.2201049820529431 pf=0.92 status=variable vmaxpu=1.5 vminpu=0.93 daily="RU4_DU" 
New "Load.BT_218323_M2" bus1="UC218323.1.4" phases=1 conn=delta model=3 kv=0.22 kw = 0.2201049820529431 pf=0.92 status=variable vmaxpu=1.5 vminpu=0.93 daily="RU4_DU"
 
New "Load.BT_223646_M1" bus1="UC223646.1.4" phases=1 conn=delta model=2 kv=0.22 kw = 0.3438929214149335 pf=0.92 status=variable vmaxpu=1.5 vminpu=0.93 daily="RU2_DU" 
New "Load.BT_223646_M2" bus1="UC223646.1.4" phases=1 conn=delta model=3 kv=0.22 kw = 0.3438929214149335 pf=0.92 status=variable vmaxpu=1.5 vminpu=0.93 daily="RU2_DU"
 
New "Load.BT_205687_M1" bus1="UC205687.1.4" phases=1 conn=delta model=2 kv=0.22 kw = 0.43351350093518887 pf=0.92 status=variable vmaxpu=1.5 vminpu=0.93 daily="RU2_DU" 
New "Load.BT_205687_M2" bus1="UC205687.1.4" phases=1 conn=delta model=3 kv=0.22 kw = 0.43351350093518887 pf=0.92 status=variable vmaxpu=1.5 vminpu=0.93 daily="RU2_DU"
 
New "Load.BT_205689_M1" bus1="UC205689.1.4" phases=1 conn=delta model=2 kv=0.22 kw = 0.2938721328454886 pf=0.92 status=variable vmaxpu=1.5 vminpu=0.93 daily="RU2_DU" 
New "Load.BT_205689_M2" bus1="UC205689.1.4" phases=1 conn=delta model=3 kv=0.22 kw = 0.2938721328454886 pf=0.92 status=variable vmaxpu=1.5 vminpu=0.93 daily="RU2_DU"
 
New "Load.BT_205691_M1" bus1="UC205691.1.2.4" phases=2 conn=delta model=2 kv=0.44 kw = 0.07955580056443712 pf=0.92 status=variable vmaxpu=1.5 vminpu=0.93 daily="RU6_DU" 
New "Load.BT_205691_M2" bus1="UC205691.1.2.4" phases=2 conn=delta model=3 kv=0.44 kw = 0.07955580056443712 pf=0.92 status=variable vmaxpu=1.5 vminpu=0.93 daily="RU6_DU"
 
New "Load.BT_223645_M1" bus1="UC223645.1.4" phases=1 conn=delta model=2 kv=0.22 kw = 0.04492739803091988 pf=0.92 status=variable vmaxpu=1.5 vminpu=0.93 daily="RU8_DU" 
New "Load.BT_223645_M2" bus1="UC223645.1.4" phases=1 conn=delta model=3 kv=0.22 kw = 0.04492739803091988 pf=0.92 status=variable vmaxpu=1.5 vminpu=0.93 daily="RU8_DU"
 
New "Load.BT_223633_M1" bus1="UC223633.1.4" phases=1 conn=delta model=2 kv=0.22 kw = 0.14975209518011692 pf=0.92 status=variable vmaxpu=1.5 vminpu=0.93 daily="RU6_DU" 
New "Load.BT_223633_M2" bus1="UC223633.1.4" phases=1 conn=delta model=3 kv=0.22 kw = 0.14975209518011692 pf=0.92 status=variable vmaxpu=1.5 vminpu=0.93 daily="RU6_DU"
 
New "Load.BT_223634_M1" bus1="UC223634.1.4" phases=1 conn=delta model=2 kv=0.22 kw = 0.07468692027812295 pf=0.92 status=variable vmaxpu=1.5 vminpu=0.93 daily="RU7_DU" 
New "Load.BT_223634_M2" bus1="UC223634.1.4" phases=1 conn=delta model=3 kv=0.22 kw = 0.07468692027812295 pf=0.92 status=variable vmaxpu=1.5 vminpu=0.93 daily="RU7_DU"
 
New "Load.BT_223644_M1" bus1="UC223644.1.4" phases=1 conn=delta model=2 kv=0.22 kw = 0.10651476933122588 pf=0.92 status=variable vmaxpu=1.5 vminpu=0.93 daily="RE5_DU" 
New "Load.BT_223644_M2" bus1="UC223644.1.4" phases=1 conn=delta model=3 kv=0.22 kw = 0.10651476933122588 pf=0.92 status=variable vmaxpu=1.5 vminpu=0.93 daily="RE5_DU"
 
New "Load.BT_217026_M1" bus1="UC217026.1.4" phases=1 conn=delta model=2 kv=0.22 kw = 0.10207212438010134 pf=0.92 status=variable vmaxpu=1.5 vminpu=0.93 daily="RU7_DU" 
New "Load.BT_217026_M2" bus1="UC217026.1.4" phases=1 conn=delta model=3 kv=0.22 kw = 0.10207212438010134 pf=0.92 status=variable vmaxpu=1.5 vminpu=0.93 daily="RU7_DU"
 
New "Load.BT_217031_M1" bus1="UC217031.1.4" phases=1 conn=delta model=2 kv=0.22 kw = 0.19366020649340288 pf=0.92 status=variable vmaxpu=1.5 vminpu=0.93 daily="RE2_DU" 
New "Load.BT_217031_M2" bus1="UC217031.1.4" phases=1 conn=delta model=3 kv=0.22 kw = 0.19366020649340288 pf=0.92 status=variable vmaxpu=1.5 vminpu=0.93 daily="RE2_DU"
 
New "Load.BT_218301_M1" bus1="UC218301.1.2.4" phases=2 conn=delta model=2 kv=0.44 kw = 0.10548810199772388 pf=0.92 status=variable vmaxpu=1.5 vminpu=0.93 daily="RU4_DU" 
New "Load.BT_218301_M2" bus1="UC218301.1.2.4" phases=2 conn=delta model=3 kv=0.44 kw = 0.10548810199772388 pf=0.92 status=variable vmaxpu=1.5 vminpu=0.93 daily="RU4_DU"
 
New "Load.BT_223630_M1" bus1="UC223630.2.4" phases=1 conn=delta model=2 kv=0.22 kw = 0.07694299728768922 pf=0.92 status=variable vmaxpu=1.5 vminpu=0.93 daily="RU3_DU" 
New "Load.BT_223630_M2" bus1="UC223630.2.4" phases=1 conn=delta model=3 kv=0.22 kw = 0.07694299728768922 pf=0.92 status=variable vmaxpu=1.5 vminpu=0.93 daily="RU3_DU"
 
New "Load.BT_223631_M1" bus1="UC223631.2.4" phases=1 conn=delta model=2 kv=0.22 kw = 0.09593493597476241 pf=0.92 status=variable vmaxpu=1.5 vminpu=0.93 daily="RU6_DU" 
New "Load.BT_223631_M2" bus1="UC223631.2.4" phases=1 conn=delta model=3 kv=0.22 kw = 0.09593493597476241 pf=0.92 status=variable vmaxpu=1.5 vminpu=0.93 daily="RU6_DU"
 
New "Load.BT_222260_M1" bus1="UC222260.1.4" phases=1 conn=delta model=2 kv=0.22 kw = 0.34231505127473016 pf=0.92 status=variable vmaxpu=1.5 vminpu=0.93 daily="RU7_DU" 
New "Load.BT_222260_M2" bus1="UC222260.1.4" phases=1 conn=delta model=3 kv=0.22 kw = 0.34231505127473016 pf=0.92 status=variable vmaxpu=1.5 vminpu=0.93 daily="RU7_DU"
 
New "Load.BT_222263_M1" bus1="UC222263.1.4" phases=1 conn=delta model=2 kv=0.22 kw = 0.5731548690248892 pf=0.92 status=variable vmaxpu=1.5 vminpu=0.93 daily="RU2_DU" 
New "Load.BT_222263_M2" bus1="UC222263.1.4" phases=1 conn=delta model=3 kv=0.22 kw = 0.5731548690248892 pf=0.92 status=variable vmaxpu=1.5 vminpu=0.93 daily="RU2_DU"
 
New "Load.BT_205680_M1" bus1="UC205680.1.2.3.4" phases=3 conn=delta model=2 kv=0.38 kw = 0.39182951046065145 pf=0.92 status=variable vmaxpu=1.5 vminpu=0.93 daily="RU2_DU" 
New "Load.BT_205680_M2" bus1="UC205680.1.2.3.4" phases=3 conn=delta model=3 kv=0.38 kw = 0.39182951046065145 pf=0.92 status=variable vmaxpu=1.5 vminpu=0.93 daily="RU2_DU"
 
New "Load.BT_205681_M1" bus1="UC205681.1.2.4" phases=2 conn=delta model=2 kv=0.44 kw = 0.6043459670610835 pf=0.92 status=variable vmaxpu=1.5 vminpu=0.93 daily="RU8_DU" 
New "Load.BT_205681_M2" bus1="UC205681.1.2.4" phases=2 conn=delta model=3 kv=0.44 kw = 0.6043459670610835 pf=0.92 status=variable vmaxpu=1.5 vminpu=0.93 daily="RU8_DU"
 
New "Load.BT_205675_M1" bus1="UC205675.2.4" phases=1 conn=delta model=2 kv=0.22 kw = 0.026735358179603323 pf=0.92 status=variable vmaxpu=1.5 vminpu=0.93 daily="RU5_DU" 
New "Load.BT_205675_M2" bus1="UC205675.2.4" phases=1 conn=delta model=3 kv=0.22 kw = 0.026735358179603323 pf=0.92 status=variable vmaxpu=1.5 vminpu=0.93 daily="RU5_DU"
 
New "Load.BT_238952_M1" bus1="UC238952.2.4" phases=1 conn=delta model=2 kv=0.22 kw = 0.0 pf=0.92 status=variable vmaxpu=1.5 vminpu=0.93 daily="RE3_DU" 
New "Load.BT_238952_M2" bus1="UC238952.2.4" phases=1 conn=delta model=3 kv=0.22 kw = 0.0 pf=0.92 status=variable vmaxpu=1.5 vminpu=0.93 daily="RE3_DU"
 
New "Load.BT_205735_M1" bus1="UC205735.3.1.4" phases=2 conn=delta model=2 kv=0.38 kw = 0.7689598257371622 pf=0.92 status=variable vmaxpu=1.5 vminpu=0.93 daily="RU5_DU" 
New "Load.BT_205735_M2" bus1="UC205735.3.1.4" phases=2 conn=delta model=3 kv=0.38 kw = 0.7689598257371622 pf=0.92 status=variable vmaxpu=1.5 vminpu=0.93 daily="RU5_DU"
 
New "Load.BT_238959_M1" bus1="UC238959.1.4" phases=1 conn=delta model=2 kv=0.22 kw = 0.05716475974805266 pf=0.92 status=variable vmaxpu=1.5 vminpu=0.93 daily="RE2_DU" 
New "Load.BT_238959_M2" bus1="UC238959.1.4" phases=1 conn=delta model=3 kv=0.22 kw = 0.05716475974805266 pf=0.92 status=variable vmaxpu=1.5 vminpu=0.93 daily="RE2_DU"
 
New "Load.BT_221689_M1" bus1="UC221689.1.4" phases=1 conn=delta model=2 kv=0.22 kw = 0.4492562855403508 pf=0.92 status=variable vmaxpu=1.5 vminpu=0.93 daily="RU6_DU" 
New "Load.BT_221689_M2" bus1="UC221689.1.4" phases=1 conn=delta model=3 kv=0.22 kw = 0.4492562855403508 pf=0.92 status=variable vmaxpu=1.5 vminpu=0.93 daily="RU6_DU"
 
New "Load.BT_238205_M1" bus1="UC238205.2.4" phases=1 conn=delta model=2 kv=0.22 kw = 0.030371563638553492 pf=0.92 status=variable vmaxpu=1.5 vminpu=0.93 daily="RE1_DU" 
New "Load.BT_238205_M2" bus1="UC238205.2.4" phases=1 conn=delta model=3 kv=0.22 kw = 0.030371563638553492 pf=0.92 status=variable vmaxpu=1.5 vminpu=0.93 daily="RE1_DU"
 
New "Load.BT_235961_M1" bus1="UC235961.1.4" phases=1 conn=delta model=2 kv=0.22 kw = 0.043287715013002555 pf=0.92 status=variable vmaxpu=1.5 vminpu=0.93 daily="RU6_DU" 
New "Load.BT_235961_M2" bus1="UC235961.1.4" phases=1 conn=delta model=3 kv=0.22 kw = 0.043287715013002555 pf=0.92 status=variable vmaxpu=1.5 vminpu=0.93 daily="RU6_DU"
 
New "Load.BT_237573_M1" bus1="UC237573.1.4" phases=1 conn=delta model=2 kv=0.22 kw = 0.0434501631742245 pf=0.92 status=variable vmaxpu=1.5 vminpu=0.93 daily="RU3_DU" 
New "Load.BT_237573_M2" bus1="UC237573.1.4" phases=1 conn=delta model=3 kv=0.22 kw = 0.0434501631742245 pf=0.92 status=variable vmaxpu=1.5 vminpu=0.93 daily="RU3_DU"
 
New "Load.BT_237359_M1" bus1="UC237359.2.4" phases=1 conn=delta model=2 kv=0.22 kw = 0.5314708785503517 pf=0.92 status=variable vmaxpu=1.5 vminpu=0.93 daily="RU2_DU" 
New "Load.BT_237359_M2" bus1="UC237359.2.4" phases=1 conn=delta model=3 kv=0.22 kw = 0.5314708785503517 pf=0.92 status=variable vmaxpu=1.5 vminpu=0.93 daily="RU2_DU"
 
New "Load.BT_237167_M1" bus1="UC237167.2.4" phases=1 conn=delta model=2 kv=0.22 kw = 0.17950883349162228 pf=0.92 status=variable vmaxpu=1.5 vminpu=0.93 daily="RU5_DU" 
New "Load.BT_237167_M2" bus1="UC237167.2.4" phases=1 conn=delta model=3 kv=0.22 kw = 0.17950883349162228 pf=0.92 status=variable vmaxpu=1.5 vminpu=0.93 daily="RU5_DU"
 
New "Load.BT_236486_M1" bus1="UC236486.1.4" phases=1 conn=delta model=2 kv=0.22 kw = 0.16262141585965825 pf=0.92 status=variable vmaxpu=1.5 vminpu=0.93 daily="RU6_DU" 
New "Load.BT_236486_M2" bus1="UC236486.1.4" phases=1 conn=delta model=3 kv=0.22 kw = 0.16262141585965825 pf=0.92 status=variable vmaxpu=1.5 vminpu=0.93 daily="RU6_DU"
 
New "Load.BT_2836677_M1" bus1="UC2836677.1.4" phases=1 conn=delta model=2 kv=0.22 kw = 0.32721932522511854 pf=0.92 status=variable vmaxpu=1.5 vminpu=0.93 daily="RU2_DU" 
New "Load.BT_2836677_M2" bus1="UC2836677.1.4" phases=1 conn=delta model=3 kv=0.22 kw = 0.32721932522511854 pf=0.92 status=variable vmaxpu=1.5 vminpu=0.93 daily="RU2_DU"
 
New "Load.BT_2836674_M1" bus1="UC2836674.2.4" phases=1 conn=delta model=2 kv=0.22 kw = 0.031588332577055914 pf=0.92 status=variable vmaxpu=1.5 vminpu=0.93 daily="RU6_DU" 
New "Load.BT_2836674_M2" bus1="UC2836674.2.4" phases=1 conn=delta model=3 kv=0.22 kw = 0.031588332577055914 pf=0.92 status=variable vmaxpu=1.5 vminpu=0.93 daily="RU6_DU"
 
New "Load.BT_235585_M1" bus1="UC235585.1.2.4" phases=2 conn=delta model=2 kv=0.44 kw = 0.9125518300038377 pf=0.92 status=variable vmaxpu=1.5 vminpu=0.93 daily="RU6_DU" 
New "Load.BT_235585_M2" bus1="UC235585.1.2.4" phases=2 conn=delta model=3 kv=0.44 kw = 0.9125518300038377 pf=0.92 status=variable vmaxpu=1.5 vminpu=0.93 daily="RU6_DU"
 
New "Load.BT_2805422_M1" bus1="UC2805422.1.2.4" phases=2 conn=delta model=2 kv=0.44 kw = 0.024601940551595317 pf=0.92 status=variable vmaxpu=1.5 vminpu=0.93 daily="CO3_DU" 
New "Load.BT_2805422_M2" bus1="UC2805422.1.2.4" phases=2 conn=delta model=3 kv=0.44 kw = 0.024601940551595317 pf=0.92 status=variable vmaxpu=1.5 vminpu=0.93 daily="CO3_DU"
 
New "Load.BT_2835970_M1" bus1="UC2835970.1.4" phases=1 conn=delta model=2 kv=0.22 kw = 0.3001247314166692 pf=0.92 status=variable vmaxpu=1.5 vminpu=0.93 daily="RU2_DU" 
New "Load.BT_2835970_M2" bus1="UC2835970.1.4" phases=1 conn=delta model=3 kv=0.22 kw = 0.3001247314166692 pf=0.92 status=variable vmaxpu=1.5 vminpu=0.93 daily="RU2_DU"
 
New "Load.BT_236232_M1" bus1="UC236232.1.2.3.4" phases=3 conn=delta model=2 kv=0.38 kw = 0.20005179294799197 pf=0.92 status=variable vmaxpu=1.5 vminpu=0.93 daily="RU3_DU" 
New "Load.BT_236232_M2" bus1="UC236232.1.2.3.4" phases=3 conn=delta model=3 kv=0.38 kw = 0.20005179294799197 pf=0.92 status=variable vmaxpu=1.5 vminpu=0.93 daily="RU3_DU"
 
New "Load.BT_205652_M1" bus1="UC205652.1.4" phases=1 conn=delta model=2 kv=0.22 kw = 0.27371914326736735 pf=0.92 status=variable vmaxpu=1.5 vminpu=0.93 daily="RU5_DU" 
New "Load.BT_205652_M2" bus1="UC205652.1.4" phases=1 conn=delta model=3 kv=0.22 kw = 0.27371914326736735 pf=0.92 status=variable vmaxpu=1.5 vminpu=0.93 daily="RU5_DU"
 
New "Load.BT_205761_M1" bus1="UC205761.1.2.3.4" phases=3 conn=delta model=2 kv=0.38 kw = 1.0463735928491662 pf=0.92 status=variable vmaxpu=1.5 vminpu=0.93 daily="RU8_DU" 
New "Load.BT_205761_M2" bus1="UC205761.1.2.3.4" phases=3 conn=delta model=3 kv=0.38 kw = 1.0463735928491662 pf=0.92 status=variable vmaxpu=1.5 vminpu=0.93 daily="RU8_DU"
 
New "Load.BT_225860_M1" bus1="UC225860.2.4" phases=1 conn=delta model=2 kv=0.22 kw = 0.25913076096925053 pf=0.92 status=variable vmaxpu=1.5 vminpu=0.93 daily="RE8_DU" 
New "Load.BT_225860_M2" bus1="UC225860.2.4" phases=1 conn=delta model=3 kv=0.22 kw = 0.25913076096925053 pf=0.92 status=variable vmaxpu=1.5 vminpu=0.93 daily="RE8_DU"
 
New "Load.BT_235692_M1" bus1="UC235692.1.4" phases=1 conn=delta model=2 kv=0.22 kw = 0.07065268424132841 pf=0.92 status=variable vmaxpu=1.5 vminpu=0.93 daily="RE7_DU" 
New "Load.BT_235692_M2" bus1="UC235692.1.4" phases=1 conn=delta model=3 kv=0.22 kw = 0.07065268424132841 pf=0.92 status=variable vmaxpu=1.5 vminpu=0.93 daily="RE7_DU"
 
New "Load.BT_235691_M1" bus1="UC235691.2.4" phases=1 conn=delta model=2 kv=0.22 kw = 0.05274405099886194 pf=0.92 status=variable vmaxpu=1.5 vminpu=0.93 daily="RU4_DU" 
New "Load.BT_235691_M2" bus1="UC235691.2.4" phases=1 conn=delta model=3 kv=0.22 kw = 0.05274405099886194 pf=0.92 status=variable vmaxpu=1.5 vminpu=0.93 daily="RU4_DU"
 
...